*MODEL INPUT FILE            A     1     1     1     6     0
*FILES              
MODEL          MZCER_Ex    
FILEX          NOZI0901.MZX
FILEA          NOZI0901.MZA
FILET          NOZI0901.MZT
SPECIES        MZCER_Ex.SPE                                                                                 
ECOTYPE        MZCER_Ex.ECO                                                                                 
CULTIVAR       MZCER_Ex.CUL                                                                                 
PESTS          MZCER_Ex.PST                                                                                 
SOILS          SOIL.SOL                                                                                     
WEATHER        NOZI0901.WTH                                                                                 
OUTPUT         NOZI0901
*SIMULATION CONTROL                                                                              
                   1     1     S 2009032  2150 N X IRRIGATION, AF_LOC MZCER                                          
                   Y     Y     N     N     N     N     N     N                         
                   M     M     E     R     S     C     R     1     G                    
                   R     R     R     N     M                                        
                   Y     Y     Y     1     Y     N     Y     Y     N     N     D     N     N
!AUTOMATIC MANAGEM                                                                              
               2009050 2009064   40.  100.   30.   40.   10.                                                 
                 30.   50.  100. GS000 IR001  10.0 1.000                                                    
                 30.   50.   25. FE001 GS000                                                      
                100.     1   20.                                                       
                     0 2009130  100.    0.                                                   
*EXP.DETAILS                                                                               
  1NOZI0901 MZ NIT X IRR, AF_LOC 2N*3I                                                                       
*TREATMENTS                                                                               
  1 1 0 0 RAINFED LOW NITROGEN                                                                       
*CULTIVARS                                                                               
   990002 MEDIUM SEASON                                                                         
*FIELDS                                                                               
   AF0000 NOZI0901   0.0    0. DR000    0.  100. 00000        180. AFPN930001                                                   
          -34.29900       -56.30400     40.               1.0  100.   1.0   1.0      
*INITIAL CONDITIONS 
   MZ    2009032  100.    0.  1.00  1.00   0.0  1000  0.80  0.00  100.   15.
      5. 0.270   0.5   0.1
     15. 0.280   0.5   0.1
     30. 0.270   0.5   0.1
     45. 0.280   0.5   0.1
     60. 0.330   0.5   0.1
     90. 0.350   0.6   0.1
    120. 0.380   0.5   0.1
    150. 0.400   0.5   0.1
    180. 0.450   0.5   0.1
*PLANTING DETAILS                                                                              
   2009080     -99   4.4   4.4     S     R   61.    0.   7.0  -99.  -99. -99.0 -99.0   0.0                                    
*IRRIGATION                                                                               
   1.000   30.   75.  -99. GS000 IR001   0.0                                                               
   2009185 IR001  00.0                                                                         
*FERTILIZERS                                                                               
   2009080 FE001 AP001   30.   20.    0.    0.    0.    0.   -99    
*RESIDUES           
*CHEMICALS          
*TILLAGE            
*ENVIRONMENT        
*HARVEST            
*SOIL               
 AFPN930001  SCS         CL      180 Africa                           
 AF_LOC Africa          42.035 -92.630 Clayey, Clay-Loam             
   -99  0.18   2.0  0.60   60.  1.00  1.00 IB001 IB001 IB001      
    5.       0.125 0.276 0.480 1.000 -99.0  1.35  2.00 -99.0 -99.0 -99.0-9.000  7.00-99.00 20.00-99.00
   15.       0.135 0.286 0.510 1.000 -99.0  1.34  1.00 -99.0 -99.0 -99.0-9.000  7.00-99.00-99.00-99.00
   30.       0.140 0.286 0.558 0.700 -99.0  1.40  1.00 -99.0 -99.0 -99.0-9.000  7.00-99.00-99.00-99.00
   45.       0.135 0.276 0.546 0.300 -99.0  1.46  0.50 -99.0 -99.0 -99.0-9.000  7.00-99.00-99.00-99.00
   60.       0.130 0.256 0.510 0.300 -99.0  1.45  0.50 -99.0 -99.0 -99.0-9.000  7.00-99.00-99.00-99.00
   90.       0.125 0.250 0.495 0.200 -99.0  1.52  0.10 -99.0 -99.0 -99.0-9.000  7.00-99.00-99.00-99.00
  120.       0.135 0.250 0.489 0.030 -99.0  1.55  0.10 -99.0 -99.0 -99.0-9.000  7.00-99.00-99.00-99.00
  150.       0.149 0.270 0.501 0.002 -99.0  1.55  0.04 -99.0 -99.0 -99.0-9.000  7.00-99.00-99.00-99.00
  180.       0.160 0.280 0.525 0.000 -99.0  1.60  0.24 -99.0 -99.0 -99.0-9.000  7.00-99.00-99.00-99.00
                    
    5.   0.0   0.0   0.0   0.0   0.0   0.0   0.0   0.0   0.0   0.0   0.0   0.0   0.0   0.0   0.0
   15.   0.0   0.0   0.0   0.0   0.0   0.0   0.0   0.0   0.0   0.0   0.0   0.0   0.0   0.0   0.0
   30.   0.0   0.0   0.0   0.0   0.0   0.0   0.0   0.0   0.0   0.0   0.0   0.0   0.0   0.0   0.0
   45.   0.0   0.0   0.0   0.0   0.0   0.0   0.0   0.0   0.0   0.0   0.0   0.0   0.0   0.0   0.0
   60.   0.0   0.0   0.0   0.0   0.0   0.0   0.0   0.0   0.0   0.0   0.0   0.0   0.0   0.0   0.0
   90.   0.0   0.0   0.0   0.0   0.0   0.0   0.0   0.0   0.0   0.0   0.0   0.0   0.0   0.0   0.0
  120.   0.0   0.0   0.0   0.0   0.0   0.0   0.0   0.0   0.0   0.0   0.0   0.0   0.0   0.0   0.0
  150.   0.0   0.0   0.0   0.0   0.0   0.0   0.0   0.0   0.0   0.0   0.0   0.0   0.0   0.0   0.0
  180.   0.0   0.0   0.0   0.0   0.0   0.0   0.0   0.0   0.0   0.0   0.0   0.0   0.0   0.0   0.0
*CULTIVAR           
990002 MEDIUM SEASON    IB0001  276.0 0.290 910.01039.0  4.50 39.00
